#
# Generated from file chem.inp
# by ck2cti on Tue Jun 23 14:49:20 2009
#
units(length = "cm", time = "s", quantity = "mol", act_energy = "kcal/mol")


ideal_gas(name = "mymech",
      elements = " H  C  O  N ",
      species = """ CCCNO2  CCCONO  CCNO2C  CCONOC  C3CNO2  C3CONO  CJCCNO2  CCJCNO2  CCCJNO2  CJCCONO 
                   CCJCONO  CJCNO2C  CCJNO2C  CJCONOC  CJCC2NO2  CJCC2ONO """,
      reactions = "all",
      initial_state = state(temperature = 300.0,
                        pressure = OneAtm)    )



#-------------------------------------------------------------------------------
#  Species data 
#-------------------------------------------------------------------------------

species(name = "CCCNO2",
    atoms = " C:3  O:2  H:7  N:1 ",
    thermo = (
       NASA( [  300.00,  1394.00], [ 3.754907750E-001,  4.925137730E-002, 
              -3.341016980E-005,  1.175816300E-008, -1.702776550E-012,
              -1.741327990E+004,  2.759045860E+001] ),
       NASA( [ 1394.00,  5000.00], [ 1.413612480E+001,  1.785350090E-002, 
              -6.097949050E-006,  9.458527760E-010, -5.484164660E-014,
              -2.227829050E+004, -4.659667740E+001] )
             ),
    note = "CCCNO2"
       )

species(name = "CCCONO",
    atoms = " C:3  O:2  H:7  N:1 ",
    thermo = (
       NASA( [  300.00,  1390.00], [ 1.548273660E+000,  4.548682070E-002, 
              -2.768276860E-005,  8.289131890E-009, -9.610534570E-013,
              -1.656775040E+004,  2.266099620E+001] ),
       NASA( [ 1390.00,  5000.00], [ 1.437807640E+001,  1.812050290E-002, 
              -6.200584340E-006,  9.629667210E-010, -5.588226440E-014,
              -2.129713540E+004, -4.718904980E+001] )
             ),
    note = "CCCONO (cis)"
       )

species(name = "CCNO2C",
    atoms = " C:3  O:2  H:7  N:1 ",
    thermo = (
       NASA( [  300.00,  1394.00], [ 7.051101010E-001,  4.845967420E-002, 
              -3.281824260E-005,  1.159888530E-008, -1.694998570E-012,
              -1.915214630E+004,  2.454961890E+001] ),
       NASA( [ 1394.00,  5000.00], [ 1.410178860E+001,  1.785303380E-002, 
              -6.090912170E-006,  9.440126130E-010, -5.470367370E-014,
              -2.389103550E+004, -4.767214390E+001] )
             ),
    note = "CCNO2C"
       )

species(name = "CCONOC",
    atoms = " C:3  O:2  H:7  N:1 ",
    thermo = (
       NASA( [  300.00,  1396.00], [ 1.819650460E+000,  5.029098230E-002, 
              -3.864523900E-005,  1.599056830E-008, -2.745063340E-012,
              -1.873240850E+004,  1.906339990E+001] ),
       NASA( [ 1396.00,  5000.00], [ 1.519819210E+001,  1.688220190E-002, 
              -5.745986060E-006,  8.890251430E-010, -5.145231740E-014,
              -2.320747140E+004, -5.209684400E+001] )
             ),
    note = "CCONOC (tr)"
       )

species(name = "C3CNO2",
    atoms = " C:4  O:2  H:9  N:1 ",
    thermo = (
       NASA( [  300.00,  1398.00], [-3.461151900E-001,  6.720263030E-002, 
              -5.196960350E-005,  2.142738550E-008, -3.643645050E-012,
              -2.399517270E+004,  2.747048280E+001] ),
       NASA( [ 1398.00,  5000.00], [ 1.782500550E+001,  2.177978010E-002, 
              -7.416544790E-006,  1.147922510E-009, -6.645479500E-014,
              -3.004294940E+004, -6.912184310E+001] )
             ),
    note = "CC(C2)NO2"
       )

species(name = "C3CONO",
    atoms = " C:4  O:2  H:9  N:1 ",
    thermo = (
       NASA( [  300.00,  1396.00], [ 1.991430970E+000,  6.183996130E-002, 
              -4.708305410E-005,  1.942568160E-008, -3.338689010E-012,
              -2.377847360E+004,  1.727707830E+001] ),
       NASA( [ 1396.00,  5000.00], [ 1.822888940E+001,  2.139269630E-002, 
              -7.272201410E-006,  1.124178590E-009, -6.502044940E-014,
              -2.923081240E+004, -6.914348980E+001] )
             ),
    note = "CC(C2)ONO(tr"
       )

species(name = "CJCCNO2",
    atoms = " C:3  O:2  H:6  N:1 ",
    thermo = (
       NASA( [  300.00,  1398.00], [ 7.819370280E-001,  4.794370300E-002, 
              -3.622428280E-005,  1.438855910E-008, -2.347545850E-012,
               7.556210680E+003,  2.761972660E+001] ),
       NASA( [ 1398.00,  5000.00], [ 1.411704400E+001,  1.531755480E-002, 
              -5.221875950E-006,  8.089372120E-010, -4.686173350E-014,
               3.070959470E+003, -4.347732390E+001] )
             ),
    note = "CJCCNO2"
       )

species(name = "CCJCNO2",
    atoms = " C:3  O:2  H:6  N:1 ",
    thermo = (
       NASA( [  300.00,  1392.00], [ 1.590300160E+000,  4.231418010E-002, 
              -2.718789430E-005,  8.779665870E-009, -1.131531460E-012,
               6.157384670E+003,  2.457952390E+001] ),
       NASA( [ 1392.00,  5000.00], [ 1.363326970E+001,  1.581324130E-002, 
              -5.411877210E-006,  8.405958500E-010, -4.878672510E-014,
               1.810370210E+003, -4.067994290E+001] )
             ),
    note = "CCJCNO2"
       )

species(name = "CCCJNO2",
    atoms = " C:3  O:2  H:6  N:1 ",
    thermo = (
       NASA( [  300.00,  1400.00], [-8.260183980E-003,  5.376653110E-002, 
              -4.439459860E-005,  1.915918420E-008, -3.349434990E-012,
               4.636995900E+003,  2.755837400E+001] ),
       NASA( [ 1400.00,  5000.00], [ 1.492293040E+001,  1.507176290E-002, 
              -5.140286300E-006,  7.965425960E-010, -4.615409420E-014,
              -1.680954140E+002, -5.127989280E+001] )
             ),
    note = "CCCJNO2"
       )

species(name = "CJCCONO",
    atoms = " C:3  O:2  H:6  N:1 ",
    thermo = (
       NASA( [  300.00,  1395.00], [ 1.771587960E+000,  4.484976440E-002, 
              -3.127026960E-005,  1.130621160E-008, -1.678008160E-012,
               8.170935770E+003,  2.288038360E+001] ),
       NASA( [ 1395.00,  5000.00], [ 1.442324070E+001,  1.554135770E-002, 
              -5.312330840E-006,  8.244497240E-010, -4.782175610E-014,
               3.751171130E+003, -4.515639480E+001] )
             ),
    note = "CJCCONO"
       )

species(name = "CCJCONO",
    atoms = " C:3  O:2  H:6  N:1 ",
    thermo = (
       NASA( [  300.00,  1393.00], [ 2.115099040E+000,  4.315593420E-002, 
              -2.879508460E-005,  9.844617960E-009, -1.371500920E-012,
               6.962122380E+003,  2.095808390E+001] ),
       NASA( [ 1393.00,  5000.00], [ 1.433100870E+001,  1.564546160E-002, 
              -5.353908010E-006,  8.315271260E-010, -4.825754040E-014,
               2.612067980E+003, -4.502131240E+001] )
             ),
    note = "CCJCONO"
       )

species(name = "CJCNO2C",
    atoms = " C:3  O:2  H:6  N:1 ",
    thermo = (
       NASA( [  300.00,  1397.00], [ 1.999673370E+000,  4.474519240E-002, 
              -3.294733740E-005,  1.286565600E-008, -2.079852460E-012,
               5.945372860E+003,  2.063684130E+001] ),
       NASA( [ 1397.00,  5000.00], [ 1.422476990E+001,  1.519448800E-002, 
              -5.171827610E-006,  8.002848770E-010, -4.632239020E-014,
               1.784812920E+003, -4.469076380E+001] )
             ),
    note = "CJCNO2C"
       )

species(name = "CCJNO2C",
    atoms = " C:3  O:2  H:6  N:1 ",
    thermo = (
       NASA( [  300.00,  1392.00], [ 3.025867840E-001,  4.644321650E-002, 
              -3.114282770E-005,  1.055470370E-008, -1.438513770E-012,
               1.381823220E+003,  2.791699300E+001] ),
       NASA( [ 1392.00,  5000.00], [ 1.375946590E+001,  1.619117440E-002, 
              -5.556279320E-006,  8.646508750E-010, -5.025036240E-014,
              -3.400935410E+003, -4.475978680E+001] )
             ),
    note = "CCJNO2C"
       )

species(name = "CJCONOC",
    atoms = " C:3  O:2  H:6  N:1 ",
    thermo = (
       NASA( [  300.00,  1402.00], [ 8.834348630E-001,  4.900911870E-002, 
              -3.975821170E-005,  1.704057810E-008, -2.961453480E-012,
               6.760024170E+003,  2.353201110E+001] ),
       NASA( [ 1402.00,  5000.00], [ 1.395525510E+001,  1.481585540E-002, 
              -4.913198910E-006,  7.470672760E-010, -4.271860750E-014,
               2.606058150E+003, -4.534079450E+001] )
             ),
    note = "CJCONOC"
       )

species(name = "CJCC2NO2",
    atoms = " C:4  O:2  H:8  N:1 ",
    thermo = (
       NASA( [  300.00,  1399.00], [ 1.442185320E+000,  6.099071120E-002, 
              -4.851904170E-005,  2.059722150E-008, -3.589257180E-012,
               1.048517970E+003,  2.191645070E+001] ),
       NASA( [ 1399.00,  5000.00], [ 1.776614660E+001,  1.926756560E-002, 
              -6.546315150E-006,  1.011665080E-009, -5.850259780E-014,
              -4.295280300E+003, -6.453558840E+001] )
             ),
    note = "CJC(C2)NO2"
       )

species(name = "CJCC2ONO",
    atoms = " C:4  O:2  H:8  N:1 ",
    thermo = (
       NASA( [  300.00,  1399.00], [ 3.017274110E+000,  6.148418300E-002, 
              -5.299261480E-005,  2.438268890E-008, -4.537710420E-012,
               1.107832040E+003,  1.440172370E+001] ),
       NASA( [ 1399.00,  5000.00], [ 1.884295170E+001,  1.826423330E-002, 
              -6.179498100E-006,  9.521627520E-010, -5.494436770E-014,
              -3.830164940E+003, -6.848613770E+001] )
             ),
    note = "CJC(C2)ONO"
       )



#-------------------------------------------------------------------------------
#  Reaction data 
#-------------------------------------------------------------------------------
